# generated using pymatgen
data_La3In2(GaO4)3
_symmetry_space_group_name_H-M   'P 1'
_cell_length_a   11.33365541
_cell_length_b   11.33365541
_cell_length_c   11.33365541
_cell_angle_alpha   109.47122063
_cell_angle_beta   109.47122063
_cell_angle_gamma   109.47122063
_symmetry_Int_Tables_number   1
_chemical_formula_structural   La3In2(GaO4)3
_chemical_formula_sum   'La12 In8 Ga12 O48'
_cell_volume   1120.69677287
_cell_formula_units_Z   4
loop_
 _symmetry_equiv_pos_site_id
 _symmetry_equiv_pos_as_xyz
  1  'x, y, z'
loop_
 _atom_site_type_symbol
 _atom_site_label
 _atom_site_symmetry_multiplicity
 _atom_site_fract_x
 _atom_site_fract_y
 _atom_site_fract_z
 _atom_site_occupancy
  La  La0  1  0.25000000  0.37500000  0.12500000  1
  La  La1  1  0.75000000  0.62500000  0.87500000  1
  La  La2  1  0.75000000  0.12500000  0.37500000  1
  La  La3  1  0.12500000  0.25000000  0.37500000  1
  La  La4  1  0.37500000  0.75000000  0.12500000  1
  La  La5  1  0.25000000  0.87500000  0.62500000  1
  La  La6  1  0.87500000  0.75000000  0.62500000  1
  La  La7  1  0.62500000  0.25000000  0.87500000  1
  La  La8  1  0.37500000  0.12500000  0.25000000  1
  La  La9  1  0.62500000  0.87500000  0.75000000  1
  La  La10  1  0.12500000  0.37500000  0.75000000  1
  La  La11  1  0.87500000  0.62500000  0.25000000  1
  In  In12  1  0.00000000  0.00000000  0.00000000  1
  In  In13  1  0.50000000  0.00000000  0.50000000  1
  In  In14  1  0.00000000  0.50000000  0.50000000  1
  In  In15  1  0.50000000  0.00000000  0.00000000  1
  In  In16  1  0.50000000  0.50000000  0.00000000  1
  In  In17  1  0.50000000  0.50000000  0.50000000  1
  In  In18  1  0.00000000  0.00000000  0.50000000  1
  In  In19  1  0.00000000  0.50000000  0.00000000  1
  Ga  Ga20  1  0.25000000  0.62500000  0.37500000  1
  Ga  Ga21  1  0.75000000  0.37500000  0.62500000  1
  Ga  Ga22  1  0.75000000  0.87500000  0.12500000  1
  Ga  Ga23  1  0.37500000  0.25000000  0.62500000  1
  Ga  Ga24  1  0.62500000  0.75000000  0.37500000  1
  Ga  Ga25  1  0.25000000  0.12500000  0.87500000  1
  Ga  Ga26  1  0.12500000  0.75000000  0.87500000  1
  Ga  Ga27  1  0.87500000  0.25000000  0.12500000  1
  Ga  Ga28  1  0.62500000  0.37500000  0.25000000  1
  Ga  Ga29  1  0.37500000  0.62500000  0.75000000  1
  Ga  Ga30  1  0.87500000  0.12500000  0.75000000  1
  Ga  Ga31  1  0.12500000  0.87500000  0.25000000  1
  O  O32  1  0.47511000  0.37497600  0.28840000  1
  O  O33  1  0.52489000  0.62502400  0.71160000  1
  O  O34  1  0.58657600  0.18671000  0.21160000  1
  O  O35  1  0.91342400  0.12502400  0.60013300  1
  O  O36  1  0.28840000  0.47511000  0.37497600  1
  O  O37  1  0.31329000  0.91342400  0.28840000  1
  O  O38  1  0.41342400  0.81329000  0.78840000  1
  O  O39  1  0.08657600  0.87497600  0.39986700  1
  O  O40  1  0.71160000  0.52489000  0.62502400  1
  O  O41  1  0.68671000  0.08657600  0.71160000  1
  O  O42  1  0.02489000  0.31329000  0.89986700  1
  O  O43  1  0.21160000  0.58657600  0.18671000  1
  O  O44  1  0.12502400  0.02489000  0.21160000  1
  O  O45  1  0.97511000  0.68671000  0.10013300  1
  O  O46  1  0.78840000  0.41342400  0.81329000  1
  O  O47  1  0.87497600  0.97511000  0.78840000  1
  O  O48  1  0.60013300  0.91342400  0.12502400  1
  O  O49  1  0.18671000  0.47511000  0.60013300  1
  O  O50  1  0.39986700  0.08657600  0.87497600  1
  O  O51  1  0.81329000  0.52489000  0.39986700  1
  O  O52  1  0.89986700  0.02489000  0.31329000  1
  O  O53  1  0.37497600  0.58657600  0.89986700  1
  O  O54  1  0.10013300  0.97511000  0.68671000  1
  O  O55  1  0.62502400  0.41342400  0.10013300  1
  O  O56  1  0.37497600  0.28840000  0.47511000  1
  O  O57  1  0.58657600  0.89986700  0.37497600  1
  O  O58  1  0.62502400  0.71160000  0.52489000  1
  O  O59  1  0.41342400  0.10013300  0.62502400  1
  O  O60  1  0.12502400  0.60013300  0.91342400  1
  O  O61  1  0.02489000  0.21160000  0.12502400  1
  O  O62  1  0.87497600  0.39986700  0.08657600  1
  O  O63  1  0.97511000  0.78840000  0.87497600  1
  O  O64  1  0.31329000  0.89986700  0.02489000  1
  O  O65  1  0.91342400  0.28840000  0.31329000  1
  O  O66  1  0.68671000  0.10013300  0.97511000  1
  O  O67  1  0.08657600  0.71160000  0.68671000  1
  O  O68  1  0.18671000  0.21160000  0.58657600  1
  O  O69  1  0.47511000  0.60013300  0.18671000  1
  O  O70  1  0.81329000  0.78840000  0.41342400  1
  O  O71  1  0.52489000  0.39986700  0.81329000  1
  O  O72  1  0.28840000  0.31329000  0.91342400  1
  O  O73  1  0.71160000  0.68671000  0.08657600  1
  O  O74  1  0.21160000  0.12502400  0.02489000  1
  O  O75  1  0.78840000  0.87497600  0.97511000  1
  O  O76  1  0.89986700  0.37497600  0.58657600  1
  O  O77  1  0.10013300  0.62502400  0.41342400  1
  O  O78  1  0.60013300  0.18671000  0.47511000  1
  O  O79  1  0.39986700  0.81329000  0.52489000  1
