# generated using pymatgen
data_Pr2Fe2Si2C
_symmetry_space_group_name_H-M   'P 1'
_cell_length_a   5.78629729
_cell_length_b   5.78629729
_cell_length_c   7.01651937
_cell_angle_alpha   54.44689673
_cell_angle_beta   54.44689673
_cell_angle_gamma   40.55906361
_symmetry_Int_Tables_number   1
_chemical_formula_structural   Pr2Fe2Si2C
_chemical_formula_sum   'Pr2 Fe2 Si2 C1'
_cell_volume   119.86494181
_cell_formula_units_Z   1
loop_
 _symmetry_equiv_pos_site_id
 _symmetry_equiv_pos_as_xyz
  1  'x, y, z'
loop_
 _atom_site_type_symbol
 _atom_site_label
 _atom_site_symmetry_multiplicity
 _atom_site_fract_x
 _atom_site_fract_y
 _atom_site_fract_z
 _atom_site_occupancy
  Pr  Pr0  1  0.44109400  0.44109400  0.30158700  1
  Pr  Pr1  1  0.55890600  0.55890600  0.69841300  1
  Fe  Fe2  1  0.80535000  0.80535000  0.08678600  1
  Fe  Fe3  1  0.19465000  0.19465000  0.91321400  1
  Si  Si4  1  0.82035900  0.82035900  0.74468300  1
  Si  Si5  1  0.17964100  0.17964100  0.25531700  1
  C  C6  1  0.00000000  0.00000000  0.00000000  1
