# generated using pymatgen
data_BaPr2Sc2O7
_symmetry_space_group_name_H-M   'P 1'
_cell_length_a   5.86403400
_cell_length_b   5.86403400
_cell_length_c   20.63271700
_cell_angle_alpha   90.00000000
_cell_angle_beta   90.00000000
_cell_angle_gamma   90.00000000
_symmetry_Int_Tables_number   1
_chemical_formula_structural   BaPr2Sc2O7
_chemical_formula_sum   'Ba4 Pr8 Sc8 O28'
_cell_volume   709.49506795
_cell_formula_units_Z   4
loop_
 _symmetry_equiv_pos_site_id
 _symmetry_equiv_pos_as_xyz
  1  'x, y, z'
loop_
 _atom_site_type_symbol
 _atom_site_label
 _atom_site_symmetry_multiplicity
 _atom_site_fract_x
 _atom_site_fract_y
 _atom_site_fract_z
 _atom_site_occupancy
  Ba  Ba0  1  0.23852100  0.76147900  0.50000000  1
  Ba  Ba1  1  0.76147900  0.23852100  0.50000000  1
  Ba  Ba2  1  0.26147900  0.26147900  0.00000000  1
  Ba  Ba3  1  0.73852100  0.73852100  0.00000000  1
  Pr  Pr4  1  0.22589300  0.77410700  0.31575900  1
  Pr  Pr5  1  0.77410700  0.22589300  0.31575900  1
  Pr  Pr6  1  0.27410700  0.27410700  0.81575900  1
  Pr  Pr7  1  0.72589300  0.72589300  0.81575900  1
  Pr  Pr8  1  0.77410700  0.22589300  0.68424100  1
  Pr  Pr9  1  0.22589300  0.77410700  0.68424100  1
  Pr  Pr10  1  0.72589300  0.72589300  0.18424100  1
  Pr  Pr11  1  0.27410700  0.27410700  0.18424100  1
  Sc  Sc12  1  0.24264700  0.75735300  0.10108400  1
  Sc  Sc13  1  0.75735300  0.24264700  0.10108400  1
  Sc  Sc14  1  0.25735300  0.25735300  0.60108400  1
  Sc  Sc15  1  0.74264700  0.74264700  0.60108400  1
  Sc  Sc16  1  0.75735300  0.24264700  0.89891600  1
  Sc  Sc17  1  0.24264700  0.75735300  0.89891600  1
  Sc  Sc18  1  0.74264700  0.74264700  0.39891600  1
  Sc  Sc19  1  0.25735300  0.25735300  0.39891600  1
  O  O20  1  0.28320600  0.28320600  0.50000000  1
  O  O21  1  0.71679400  0.71679400  0.50000000  1
  O  O22  1  0.21679400  0.78320600  0.00000000  1
  O  O23  1  0.78320600  0.21679400  0.00000000  1
  O  O24  1  0.31242800  0.68757200  0.20909600  1
  O  O25  1  0.68757200  0.31242800  0.20909600  1
  O  O26  1  0.18757200  0.18757200  0.70909600  1
  O  O27  1  0.81242800  0.81242800  0.70909600  1
  O  O28  1  0.68757200  0.31242800  0.79090400  1
  O  O29  1  0.31242800  0.68757200  0.79090400  1
  O  O30  1  0.81242800  0.81242800  0.29090400  1
  O  O31  1  0.18757200  0.18757200  0.29090400  1
  O  O32  1  0.00000000  0.50000000  0.38676900  1
  O  O33  1  0.50000000  0.00000000  0.88676900  1
  O  O34  1  0.00000000  0.50000000  0.61323100  1
  O  O35  1  0.50000000  0.00000000  0.11323100  1
  O  O36  1  0.50000000  0.00000000  0.38676900  1
  O  O37  1  0.00000000  0.50000000  0.88676900  1
  O  O38  1  0.50000000  0.00000000  0.61323100  1
  O  O39  1  0.00000000  0.50000000  0.11323100  1
  O  O40  1  0.50000000  0.50000000  0.37166900  1
  O  O41  1  0.00000000  0.00000000  0.87166900  1
  O  O42  1  0.50000000  0.50000000  0.62833100  1
  O  O43  1  0.00000000  0.00000000  0.12833100  1
  O  O44  1  0.50000000  0.50000000  0.09369000  1
  O  O45  1  0.00000000  0.00000000  0.59369000  1
  O  O46  1  0.50000000  0.50000000  0.90631000  1
  O  O47  1  0.00000000  0.00000000  0.40631000  1
